Circuit: * C:\users\rodrigue\Mes documents\Draft_vbatt.asc

Limiting rise time of source v3 to 0.1
Limiting fall time of source v3 to 0.1
Direct Newton iteration failed to find .op point.  (Use ".option noopiter" to skip.)
Starting Gmin stepping
Gmin = 10
Gmin = 1.07374
Gmin = 0.115292
Gmin = 0.0123794
Gmin = 0.00132923
Gmin = 0.000142725
Gmin = 1.5325e-005
Gmin = 1.6455e-006
Gmin = 1.76685e-007
Gmin = 1.89714e-008
Gmin = 2.03704e-009
Gmin = 2.18725e-010
Gmin = 2.34854e-011
Gmin = 2.52173e-012
vernier = 0.5
vernier = 0.25
vernier = 0.125
Gmin = 1.78538e-012
vernier = 0.0625
vernier = 0.03125
vernier = 0.015625
vernier = 0.0078125
vernier = 0.00390625
vernier = 0.00195313
vernier = 0.000976563
Gmin = 1.81285e-012
vernier = 0.000488281
Gmin = 0
Gmin stepping failed

Starting source stepping with srcstepmethod=0
Source Step = 3.0303%
Source Step = 33.3333%
Source Step = 63.6364%
Source Step = 93.9394%
Source stepping succeeded in finding the operating point.


Date: Tue Dec 21 10:48:56 2021
Total elapsed time: 0.054 seconds.

tnom = 27
temp = 27
method = modified trap
totiter = 5500
traniter = 2947
tranpoints = 1295
accept = 1227
rejected = 68
matrix size = 14
fillins = 0
solver = Normal
Matrix Compiler1: 662 bytes object code size  0.2/0.1/[0.1]
Matrix Compiler2: off  [0.1]/0.2/0.2

