Circuit: * C:\users\rodrigue\Mes documents\Draft_diodeEn3v3.asc

WARNING: Specified period is not longer than the sum of Trise, Tfall, and Ton for v5.  Increasing period to 0.05
Limiting rise time of source v5 to 9.71445e-018
Limiting fall time of source v5 to 9.71445e-018
WARNING: Node N001 is floating.

Direct Newton iteration for .op point succeeded.

Date: Tue Dec 21 22:25:27 2021
Total elapsed time: 0.031 seconds.

tnom = 27
temp = 27
method = modified trap
totiter = 3232
traniter = 3229
tranpoints = 1575
accept = 1408
rejected = 167
matrix size = 6
fillins = 0
solver = Normal
Matrix Compiler1: 110 bytes object code size  0.1/0.1/[0.1]
Matrix Compiler2: 326 bytes object code size  0.1/0.2/[0.1]

