Circuit: * C:\users\rodrigue\Mes documents\Draft_tilt.asc

WARNING: Specified period is not longer than the sum of Trise, Tfall, and Ton for v5.  Increasing period to 0.002
Limiting rise time of source v5 to 3.90313e-019
Limiting fall time of source v5 to 3.90313e-019
WARNING: Node N001 is floating.

Direct Newton iteration for .op point succeeded.

Date: Wed Dec 22 16:49:44 2021
Total elapsed time: 0.018 seconds.

tnom = 27
temp = 27
method = modified trap
totiter = 3168
traniter = 3165
tranpoints = 1544
accept = 1387
rejected = 157
matrix size = 6
fillins = 0
solver = Normal
Matrix Compiler1: 110 bytes object code size  0.1/0.1/[0.1]
Matrix Compiler2: 326 bytes object code size  0.1/0.1/[0.1]

