Circuit: * C:\users\rodrigue\Mes documents\PlatformIO\Projects\EcoApi_BeeHiveMonitoring\Hardware\LTSpice\Draft_inverter_wkup.asc

